@<TRIPOS>MOLECULE
LIG
   53    54     1     0     0
SMALL
bcc


@<TRIPOS>ATOM
      1 C           11.5790     4.5600    -3.0290 c3         1 LIG       0.049600
      2 C1          11.1510     5.7560    -3.9230 c3         1 LIG      -0.086100
      3 H           10.8710     5.4160    -4.9240 hc         1 LIG       0.039367
      4 H1          11.9480     6.4960    -4.0190 hc         1 LIG       0.039367
      5 H2          10.2860     6.2670    -3.4920 hc         1 LIG       0.039367
      6 C2          10.2810     3.7510    -2.7720 ca         1 LIG      -0.105300
      7 C3           9.7190     2.9810    -3.7980 ca         1 LIG      -0.092500
      8 H3          10.2540     2.8570    -4.7360 ha         1 LIG       0.137000
      9 C4           8.4450     2.4190    -3.6660 ca         1 LIG      -0.180500
     10 H4           8.0180     1.8560    -4.4920 ha         1 LIG       0.143000
     11 C5           7.6930     2.6170    -2.5060 ca         1 LIG       0.126100
     12 C6           8.2630     3.3390    -1.4560 ca         1 LIG      -0.180500
     13 H5           7.7140     3.5030    -0.5340 ha         1 LIG       0.143000
     14 C7           9.5350     3.8980    -1.5900 ca         1 LIG      -0.092500
     15 H6           9.9040     4.4890    -0.7590 ha         1 LIG       0.137000
     16 O            6.3930     2.1230    -2.4490 os         1 LIG      -0.334900
     17 C8           5.3980     2.6060    -1.4970 c3         1 LIG       0.128400
     18 H7           5.3590     3.6980    -1.5500 h1         1 LIG       0.054700
     19 H8           5.7000     2.3060    -0.4900 h1         1 LIG       0.054700
     20 C9           3.9970     2.0210    -1.8140 c3         1 LIG       0.137100
     21 H9           4.0500     0.9300    -1.7740 h1         1 LIG       0.054700
     22 O1           3.0490     2.4810    -0.8330 oh         1 LIG      -0.603800
     23 H10          2.1450     2.1430    -1.0250 ho         1 LIG       0.406000
     24 C10          3.5140     2.4510    -3.2140 c3         1 LIG      -0.132100
     25 H11          4.1880     2.0750    -3.9860 hc         1 LIG       0.047367
     26 H12          2.5160     2.0530    -3.4130 hc         1 LIG       0.047367
     27 H13          3.4730     3.5400    -3.2920 hc         1 LIG       0.047367
     28 C11         12.1650     5.1800    -1.7310 c3         1 LIG      -0.086100
     29 H14         12.3580     4.4090    -0.9820 hc         1 LIG       0.039367
     30 H15         13.1120     5.6850    -1.9400 hc         1 LIG       0.039367
     31 H16         11.4920     5.9250    -1.2990 hc         1 LIG       0.039367
     32 C12         12.7370     3.7350    -3.6500 ca         1 LIG      -0.105300
     33 C13         13.1080     2.5080    -3.0850 ca         1 LIG      -0.092500
     34 H17         12.5130     2.0790    -2.2830 ha         1 LIG       0.137000
     35 C14         14.2750     1.8500    -3.4890 ca         1 LIG      -0.180500
     36 H18         14.5580     0.9160    -3.0090 ha         1 LIG       0.143000
     37 C15         15.1070     2.4030    -4.4640 ca         1 LIG       0.126100
     38 C16         14.7210     3.6000    -5.0690 ca         1 LIG      -0.180500
     39 H19         15.3360     4.0550    -5.8400 ha         1 LIG       0.143000
     40 C17         13.5570     4.2540    -4.6660 ca         1 LIG      -0.092500
     41 H20         13.3350     5.2050    -5.1390 ha         1 LIG       0.137000
     42 O2          16.3060     1.7660    -4.7730 os         1 LIG      -0.334900
     43 C18         17.4120     2.4350    -5.4490 c3         1 LIG       0.128400
     44 H21         17.6360     3.3670    -4.9220 h1         1 LIG       0.054700
     45 H22         17.1110     2.6650    -6.4750 h1         1 LIG       0.054700
     46 C19         18.6760     1.5360    -5.4690 c3         1 LIG       0.137100
     47 H23         18.4370     0.6010    -5.9840 h1         1 LIG       0.054700
     48 O3          19.7340     2.2070    -6.1790 oh         1 LIG      -0.603800
     49 H24         20.5560     1.6660    -6.1870 ho         1 LIG       0.406000
     50 C20         19.1590     1.2150    -4.0410 c3         1 LIG      -0.132100
     51 H25         20.0630     0.6030    -4.0710 hc         1 LIG       0.047367
     52 H26         19.3820     2.1330    -3.4920 hc         1 LIG       0.047367
     53 H27         18.3950     0.6620    -3.4910 hc         1 LIG       0.047367
@<TRIPOS>BOND
     1     1     2 1   
     2     1     6 1   
     3     1    28 1   
     4     1    32 1   
     5     2     3 1   
     6     2     4 1   
     7     2     5 1   
     8     6     7 ar  
     9     6    14 ar  
    10     7     8 1   
    11     7     9 ar  
    12     9    10 1   
    13     9    11 ar  
    14    11    12 ar  
    15    11    16 1   
    16    12    13 1   
    17    12    14 ar  
    18    14    15 1   
    19    16    17 1   
    20    17    18 1   
    21    17    19 1   
    22    17    20 1   
    23    20    21 1   
    24    20    22 1   
    25    20    24 1   
    26    22    23 1   
    27    24    25 1   
    28    24    26 1   
    29    24    27 1   
    30    28    29 1   
    31    28    30 1   
    32    28    31 1   
    33    32    33 ar  
    34    32    40 ar  
    35    33    34 1   
    36    33    35 ar  
    37    35    36 1   
    38    35    37 ar  
    39    37    38 ar  
    40    37    42 1   
    41    38    39 1   
    42    38    40 ar  
    43    40    41 1   
    44    42    43 1   
    45    43    44 1   
    46    43    45 1   
    47    43    46 1   
    48    46    47 1   
    49    46    48 1   
    50    46    50 1   
    51    48    49 1   
    52    50    51 1   
    53    50    52 1   
    54    50    53 1   
@<TRIPOS>SUBSTRUCTURE
     1 LIG         1 TEMP              0 ****  ****    0 ROOT
